CRYSTAL
PRIMVEC
 5.34931891570000 0.00000000000000 0.00000000000000
 -2.67465945780000 9.98010235450000 0.00000000000000
 0.00000000000000 -0.00000000000000 37.62004313080000
PRIMCOORD
 36 1
 22     0.00000000000000     5.34845448000000    16.28840905000000
 22     1.33732973000000     2.67422724000000    15.64420452000000
 22     0.00000000000000     0.00000000000000    15.00000000000000
 22     1.33732973000000     8.02268171000000    16.93261357000000
  8     1.33732973000000     6.10377027000000    17.46640693000000
  8     0.00000000000000     3.42954303000000    16.82220241000000
  8     1.33732973000000     4.59313868000000    15.11041117000000
  8     2.67465946000000     2.63571795000000    17.04302477000000
  8     1.33732973000000     0.75531579000000    16.17799788000000
  8     2.67465946000000     8.06119100000000    15.53379333000000
  8     1.33732973000000     9.94159307000000    16.39882024000000
  8     0.00000000000000     7.26736583000000    15.75461572000000
 22     2.67465946000000     6.06526107000000    18.86522715000000
 22     4.01198919000000     3.39103384000000    18.22102262000000
 22     2.67465946000000     0.71680660000000    17.57681810000000
 22    -1.33732973000000     8.73948831000000    19.50943167000000
  8    -1.33732973000000     6.82057687000000    20.04322503000000
  8     2.67465946000000     4.14634963000000    19.39902051000000
  8    -1.33732973000000     5.30994528000000    17.68722927000000
  8     0.00000000000000     3.35252455000000    19.61984287000000
  8     4.01198919000000     1.47212239000000    18.75481598000000
  8     0.00000000000000     8.77799760000000    18.11061143000000
  8     1.33732973000000     0.67829731000000    18.97563834000000
  8     2.67465946000000     7.98417243000000    18.33143382000000
 22     0.00000000000000     6.78206767000000    21.44204525000000
 22     1.33732973000000     4.10784043000000    20.79784072000000
 22     0.00000000000000     1.43361320000000    20.15363620000000
 22     1.33732973000000     9.45629491000000    22.08624977000000
  8     1.33732973000000     7.53738346000000    22.62004313000000
  8     0.00000000000000     4.86315623000000    21.97583861000000
  8     1.33732973000000     6.02675188000000    20.26404737000000
  8     2.67465946000000     4.06933115000000    22.19666097000000
  8     1.33732973000000     2.18892899000000    21.33163408000000
  8     2.67465946000000     9.49480420000000    20.68742953000000
  8     4.01198919000000     1.39510391000000    21.55245644000000
  8     0.00000000000000     8.70097903000000    20.90825192000000
